Circuit: * C:\Users\jhong\Desktop\adi\shitan\1_10.asc

Direct Newton iteration for .op point succeeded.

Date: Thu Nov 14 11:40:52 2024
Total elapsed time: 0.158 seconds.

tnom = 27
temp = 27
method = modified trap
totiter = 7723
traniter = 7714
tranpoints = 2659
accept = 2067
rejected = 592
matrix size = 36
fillins = 26
solver = Normal
Thread vector: 6.6/5.5[3] 2.0/4.2[1] 1.3/4.2[1] 0.1/3.2[1]  2592/500
Matrix Compiler1: 4.05 KB object code size  1.2/0.5/[0.2]
Matrix Compiler2: 4.73 KB object code size  0.4/0.6/[0.3]

