Circuit: * C:\Users\jhong\Desktop\adi\shitan\1_12.asc

Direct Newton iteration for .op point succeeded.

Date: Thu Nov 14 17:12:05 2024
Total elapsed time: 0.086 seconds.

tnom = 27
temp = 27
method = modified trap
totiter = 4163
traniter = 4154
tranpoints = 1623
accept = 1417
rejected = 206
matrix size = 10
fillins = 2
solver = Normal
Matrix Compiler1: 714 bytes object code size  0.2/0.1/[0.0]
Matrix Compiler2: 1.06 KB object code size  0.1/0.1/[0.1]

