Circuit: * C:\Users\jhong\Desktop\adi\shitan\1_14.asc

WARNING: Node N006 is floating.
WARNING: Node N007 is floating.
WARNING: Node N009 is floating.

.OP point found by inspection.

Date: Fri Nov 15 14:58:54 2024
Total elapsed time: 0.047 seconds.

tnom = 27
temp = 27
method = modified trap
totiter = 2613
traniter = 2613
tranpoints = 1232
accept = 1176
rejected = 56
matrix size = 78
fillins = 60
solver = Normal
Thread vector: 4.7/3.5[2] 2.4/1.4[2] 0.9/0.7[2] 0.2/1.3[1]  2592/500
Matrix Compiler1: 13.30 KB object code size  1.4/0.8/[0.5]
Matrix Compiler2: 9.25 KB object code size  0.5/0.6/[0.3]

