Circuit: * C:\Users\jhong\Desktop\adi\shitan\1_5.asc

Early termination of direct N-R iteration.
Direct Newton iteration failed to find .op point.  (Use ".option noopiter" to skip.)
Starting Gmin stepping
Gmin = 10
Gmin = 1.07374
Gmin = 0.115292
Gmin = 0.0123794
Gmin = 0.00132923
Gmin = 0.000142725
Gmin = 1.5325e-005
Gmin = 1.6455e-006
vernier = 0.5
Gmin = 2.7607e-007
vernier = 0.25
vernier = 0.125
vernier = 0.166667
Gmin = 2.09417e-007
vernier = 0.222222
vernier = 0.296296
Gmin = 1.24711e-007
vernier = 0.395061
Gmin = 5.44766e-008
vernier = 0.526748
vernier = 0.702331
Gmin = 1.45274e-008
vernier = 0.936441
vernier = 1
Gmin = 2.02486e-009
Gmin = 2.17417e-010
Gmin = 2.3345e-011
Gmin = 2.50665e-012
Gmin = 2.69149e-013
Gmin = 0
Gmin stepping succeeded in finding the operating point.


Date: Mon Nov 11 16:16:01 2024
Total elapsed time: 0.093 seconds.

tnom = 27
temp = 27
method = modified trap
totiter = 2796
traniter = 2082
tranpoints = 1042
accept = 1042
rejected = 0
matrix size = 24
fillins = 40
solver = Normal
Thread vector: 4.5/3.1[2] 1.0/0.8[2] 0.8/0.7[2] 0.2/0.7[1]  2592/500
Matrix Compiler1: 3.79 KB object code size  0.6/0.2/[0.2]
Matrix Compiler2:     251 opcodes  0.3/[0.3]/0.3

