Circuit: * C:\Users\jhong\Desktop\adi\shitan\1_6.asc

Direct Newton iteration failed to find .op point.  (Use ".option noopiter" to skip.)
Starting Gmin stepping
Gmin = 10
Gmin = 1.07374
Gmin = 0.115292
Gmin = 0.0123794
Gmin = 0.00132923
Gmin = 0.000142725
Gmin = 1.5325e-005
Gmin = 1.6455e-006
Gmin = 1.76685e-007
Gmin = 1.89714e-008
Gmin = 2.03704e-009
Gmin = 2.18725e-010
Gmin = 2.34854e-011
Gmin = 2.52173e-012
Gmin = 2.70769e-013
Gmin = 0
Gmin stepping succeeded in finding the operating point.


vi: RMS(v(vi))=1 FROM 1 TO 100000
vo: RMS(v(vo))=9.39526 FROM 1 TO 100000


Date: Mon Nov 11 23:53:10 2024
Total elapsed time: 0.039 seconds.

tnom = 27
temp = 27
method = trap
totiter = 386
traniter = 0
tranpoints = 0
accept = 0
rejected = 0
matrix size = 13
fillins = 2
solver = Normal
Matrix Compiler1:      41 opcodes
Matrix Compiler2: off  [0.1]/0.1/0.1

