Circuit: * C:\Users\jhong\Desktop\adi\shitan\1_7.asc

Direct Newton iteration failed to find .op point.  (Use ".option noopiter" to skip.)
Starting Gmin stepping
Gmin = 10
Gmin = 1.07374
Gmin = 0.115292
Gmin = 0.0123794
Gmin = 0.00132923
Gmin = 0.000142725
Gmin = 1.5325e-005
Gmin = 1.6455e-006
Gmin = 1.76685e-007
Gmin = 1.89714e-008
Gmin = 2.03704e-009
Gmin = 2.18725e-010
Gmin = 2.34854e-011
Gmin = 2.52173e-012
Gmin = 2.70769e-013
Gmin = 0
Gmin stepping succeeded in finding the operating point.

.step a=0
.step a=0.001
.step a=0.002
.step a=0.003
.step a=0.004
.step a=0.005
.step a=0.006
.step a=0.007
.step a=0.008
.step a=0.009
.step a=0.01

Date: Tue Nov 12 11:34:45 2024
Total elapsed time: 0.502 seconds.

tnom = 27
temp = 27
method = modified trap
totiter = 2432
traniter = 2082
tranpoints = 1042
accept = 1042
rejected = 0
matrix size = 21
fillins = 21
solver = Normal
Matrix Compiler1: 2.26 KB object code size  0.4/0.1/[0.1]
Matrix Compiler2: off  [0.2]/0.2/0.2

