Circuit: * C:\Users\jhong\Desktop\adi\shitan\1_9.asc

Direct Newton iteration for .op point succeeded.

vomax: MAX(v(vo))=4.03335 FROM 0 TO 0.001


Date: Wed Nov 13 12:33:20 2024
Total elapsed time: 0.070 seconds.

tnom = 27
temp = 27
method = modified trap
totiter = 2605
traniter = 2596
tranpoints = 1126
accept = 1086
rejected = 40
matrix size = 14
fillins = 6
solver = Normal
Matrix Compiler1: 1.21 KB object code size  0.3/0.1/[0.1]
Matrix Compiler2: off  [0.1]/0.1/0.2

