Circuit: * C:\Users\jhong\Desktop\adi\shitan\2_17.asc

Direct Newton iteration for .op point succeeded.

rmsofvi: RMS(v(vi))=0.00703616 FROM 0.02 TO 0.05
rmsofvo: RMS(v(vo))=0.699348 FROM 0.02 TO 0.05


Date: Fri Nov 15 18:29:40 2024
Total elapsed time: 0.053 seconds.

tnom = 27
temp = 27
method = modified trap
totiter = 3612
traniter = 3603
tranpoints = 1787
accept = 1388
rejected = 399
matrix size = 13
fillins = 2
solver = Normal
Matrix Compiler1: 674 bytes object code size  0.2/0.1/[0.1]
Matrix Compiler2: off  [0.1]/0.1/0.1

