Circuit: * C:\Users\jhong\Desktop\adi\shitan\2_19.asc

WARNING: Node VO is floating.

WARNING: Less than two connections to node VO.  This node is used by C3.
Direct Newton iteration for .op point succeeded.

pp: PP(v(vo))=2.0001 FROM 0 TO 0.05


Date: Fri Nov 15 19:44:33 2024
Total elapsed time: 0.121 seconds.

tnom = 27
temp = 27
method = modified trap
totiter = 5259
traniter = 5255
tranpoints = 2588
accept = 1986
rejected = 602
matrix size = 28
fillins = 35
solver = Normal
Thread vector: 4.0/4.2[1] 1.3/0.9[3] 0.8/0.7[1] 0.1/0.7[1]  2592/500
Matrix Compiler1: 3.08 KB object code size  0.7/0.3/[0.1]
Matrix Compiler2: off  [0.2]/0.3/0.3

