Circuit: * C:\Users\jhong\Desktop\adi\shitan\2_20.asc

Direct Newton iteration for .op point succeeded.

Date: Sat Nov 16 10:36:59 2024
Total elapsed time: 0.023 seconds.

tnom = 27
temp = 27
method = trap
totiter = 6
traniter = 0
tranpoints = 0
accept = 0
rejected = 0
matrix size = 13
fillins = 0
solver = Normal
Matrix Compiler1:      39 opcodes
Matrix Compiler2: 993 bytes object code size
