Circuit: * C:\Users\jhong\Desktop\adi\shitan\2_22.asc

.OP point found by inspection.

Date: Sat Nov 16 13:39:06 2024
Total elapsed time: 0.030 seconds.

tnom = 27
temp = 27
method = modified trap
totiter = 2311
traniter = 2311
tranpoints = 1137
accept = 1123
rejected = 14
matrix size = 28
fillins = 14
solver = Normal
Matrix Compiler1: 2.39 KB object code size  0.3/0.1/[0.1]
Matrix Compiler2: off  [0.1]/0.2/0.2

