Circuit: * C:\Users\jhong\Desktop\adi\shitan\2_23.asc

Direct Newton iteration failed to find .op point.  (Use ".option noopiter" to skip.)
Starting Gmin stepping
Gmin = 10
Gmin = 1.07374
Gmin = 0.115292
Gmin = 0.0123794
Gmin = 0.00132923
Gmin = 0.000142725
Gmin = 1.5325e-005
Gmin = 1.6455e-006
Gmin = 1.76685e-007
Gmin = 1.89714e-008
Gmin = 2.03704e-009
Gmin = 2.18725e-010
Gmin = 2.34854e-011
Gmin = 2.52173e-012
Gmin = 2.70769e-013
Gmin = 0
Gmin stepping succeeded in finding the operating point.

.step r=1000
.step r=1200
.step r=1400
.step r=1600
.step r=1800
.step r=2000
.step r=2200
.step r=2400
.step r=2600
.step r=2800
.step r=3000
.step r=3200
.step r=3400
.step r=3600
.step r=3800
.step r=4000

Date: Sat Nov 16 14:37:01 2024
Total elapsed time: 0.957 seconds.

tnom = 27
temp = 27
method = modified trap
totiter = 3346
traniter = 2082
tranpoints = 1042
accept = 1042
rejected = 0
matrix size = 23
fillins = 37
solver = Normal
Thread vector: 3.8/2.8[2] 0.9/0.9[1] 0.8/0.7[1] 0.1/0.6[1]  2592/500
Matrix Compiler1: 3.60 KB object code size  0.5/0.2/[0.1]
Matrix Compiler2: off  [0.3]/0.3/0.3

