Circuit: * C:\Users\jhong\Desktop\adi\shitan\3_27.asc

Fatal Error: Infinite subckt recursion.
Maximum allowed nest level is 64 levels.
