Circuit: * C:\Users\jhong\Desktop\adi\shitan\3_28.asc

Direct Newton iteration for .op point succeeded.

avgout: AVG(v(out))=0.47506 FROM 1 TO 1e+008
ppofout: PP(v(out))=(17.7528dB,148.38°) FROM 1 TO 1e+008


Date: Wed Nov 20 18:09:24 2024
Total elapsed time: 0.061 seconds.

tnom = 27
temp = 27
method = trap
totiter = 7
traniter = 0
tranpoints = 0
accept = 0
rejected = 0
matrix size = 48
fillins = 18
solver = Normal
Matrix Compiler1:     251 opcodes
Matrix Compiler2: 4.54 KB object code size
