Circuit: * C:\Users\jhong\Desktop\adi\shitan\4_36.asc

Direct Newton iteration for .op point succeeded.

ppofvoda: PP(v(vod))=3.86648 FROM 0 TO 0.05
ppofvoc: PP(v(voc))=6.77109e-005 FROM 0 TO 0.05


Date: Wed Nov 20 17:41:53 2024
Total elapsed time: 0.077 seconds.

tnom = 27
temp = 27
method = modified trap
totiter = 3502
traniter = 3494
tranpoints = 1748
accept = 1357
rejected = 391
matrix size = 44
fillins = 4
solver = Normal
Matrix Compiler1: 2.95 KB object code size  0.4/0.2/[0.2]
Matrix Compiler2: off  [0.2]/0.3/0.2

