Circuit: * C:\Users\jhong\Desktop\adi\shitan\Draft7.asc

WARNING: Node N008 is floating.
WARNING: Node N006 is floating.
WARNING: Node NC_04 is floating.

WARNING: Less than two connections to node N008.  This node is used by C4.
WARNING: Less than two connections to node NC_02.  This node is used by R2.
WARNING: Less than two connections to node N006.  This node is used by C8.
WARNING: Less than two connections to node NC_03.  This node is used by R3.
WARNING: Less than two connections to node NC_04.  This node is used by C10.
Direct Newton iteration for .op point succeeded.

Date: Tue Nov 19 09:46:35 2024
Total elapsed time: 0.042 seconds.

tnom = 27
temp = 27
method = trap
totiter = 30
traniter = 0
tranpoints = 0
accept = 0
rejected = 0
matrix size = 152
fillins = 102
solver = Normal
Matrix Compiler1:     927 opcodes
Matrix Compiler2: 14.59 KB object code size
