Circuit: * C:\Users\jhong\Desktop\adi\shitan\Draft8.asc

WARNING: Node N005 is floating.
WARNING: Node N008 is floating.
WARNING: Node N011 is floating.
WARNING: Node N014 is floating.

Direct Newton iteration for .op point succeeded.

Date: Wed Nov 20 21:37:04 2024
Total elapsed time: 0.051 seconds.

tnom = 27
temp = 27
method = modified trap
totiter = 2128
traniter = 2082
tranpoints = 1042
accept = 1042
rejected = 0
matrix size = 82
fillins = 65
solver = Normal
Thread vector: 2.9/3.2[1] 2.4/1.5[2] 0.8/0.9[1] 0.2/1.1[1]  2592/500
Matrix Compiler1: 13.68 KB object code size  1.3/0.7/[0.5]
Matrix Compiler2: 9.55 KB object code size  0.5/0.7/[0.4]

